/*--------------------------------*- C++ -*----------------------------------*\
  =========                 |
  \\      /  F ield         | OpenFOAM: The Open Source CFD Toolbox
   \\    /   O peration     | Website:  https://openfoam.org
    \\  /    A nd           | Version:  9
     \\/     M anipulation  |
\*---------------------------------------------------------------------------*/
FoamFile
{
    format      ascii;
    class       dictionary;
    object      surfaceFeaturesDict;
}
// * * * * * * * * * * * * * * * * * * * * * * * * * * * * * * * * * * * * * //

surfaces
(
    "AMI.stl"
    "fan1.stl"
	"fan2.stl"
);

includedAngle   150;

subsetFeatures
{
    nonManifoldEdges yes;
    openEdges        yes;
}

trimFeatures
{
    minElem         0;
    minLen          0;
}

writeObj        yes;

// ************************************************************************* //
